Circuit: * C:\Users\seanm\OneDrive\Documents\GitHub\LVBoards\PWMs\Hall Effect\Simulation.asc


Date: Thu Sep 11 17:19:17 2025
Total elapsed time: 0.083 seconds.

tnom = 27
temp = 27
method = trap
totiter = 138
traniter = 0
tranpoints = 0
accept = 0
rejected = 0
matrix size = 84
fillins = 59
solver = Normal
Avg thread counts: 20.0/0.0/20.0/20.0
Matrix Compiler1: 8.34 KB object code size  2.6/1.5/[0.6]
Matrix Compiler2: 8.32 KB object code size  1.3/1.6/[0.6]

